
     RDKit          3D

 31 32  0  0  0  0  0  0  0  0999 V2000
    6.5716   -0.2928   21.8810 C   0  0  2  0  0  0  0  0  0  0  0  0
    6.5067    0.0765   20.4101 C   0  0  0  0  0  0  0  0  0  0  0  0
    5.3959    0.7756   19.9168 C   0  0  0  0  0  0  0  0  0  0  0  0
    5.3457    1.1540   18.5762 C   0  0  0  0  0  0  0  0  0  0  0  0
    6.4140    0.8397   17.7362 C   0  0  0  0  0  0  0  0  0  0  0  0
    7.4894    0.1687   18.2206 N   0  0  0  0  0  0  0  0  0  0  0  0
    7.5587   -0.2138   19.5221 C   0  0  0  0  0  0  0  0  0  0  0  0
    6.5896    1.0898   23.8386 O   0  0  0  0  0  0  0  0  0  0  0  0
    7.0469    0.9044   22.6779 C   0  0  0  0  0  0  0  0  0  0  0  0
    8.0302    1.8040   22.1412 N   0  0  0  0  0  0  0  0  0  0  0  0
    8.3406    1.6754   21.1675 H   0  0  0  0  0  0  0  0  0  0  0  0
    8.6062    2.8939   22.9245 C   0  0  0  0  0  0  0  0  0  0  0  0
    7.7644    4.1652   22.7692 C   0  0  0  0  0  0  0  0  0  0  0  0
    8.4656    5.3902   23.3686 C   0  0  0  0  0  0  0  0  0  0  0  0
    9.6569    5.0168   24.0371 O   0  0  0  0  0  0  0  0  0  0  0  0
   10.7138    5.8807   23.6814 C   0  0  0  0  0  0  0  0  0  0  0  0
    7.3858   -1.5132   22.1122 N   0  0  0  0  0  0  0  0  0  0  0  0
    6.7329   -2.8071   22.1181 C   0  0  0  0  0  0  0  0  0  0  0  0
    5.4834   -2.8785   21.9578 O   0  0  0  0  0  0  0  0  0  0  0  0
    8.7610   -1.4114   22.5296 C   0  0  0  0  0  0  0  0  0  0  0  0
    9.0751   -1.2809   23.8857 C   0  0  0  0  0  0  0  0  0  0  0  0
   10.4008   -1.1145   24.2931 C   0  0  0  0  0  0  0  0  0  0  0  0
   11.4521   -1.0721   23.3463 C   0  0  0  0  0  0  0  0  0  0  0  0
   11.1130   -1.2117   21.9813 C   0  0  0  0  0  0  0  0  0  0  0  0
    9.7861   -1.3782   21.5803 C   0  0  0  0  0  0  0  0  0  0  0  0
   12.9272   -0.8664   23.7466 C   0  0  2  0  0  0  0  0  0  0  0  0
   13.1275   -0.7254   25.2748 C   0  0  0  0  0  0  0  0  0  0  0  0
   13.4635    0.4202   23.0822 C   0  0  0  0  0  0  0  0  0  0  0  0
   13.7637   -2.0755   23.2744 C   0  0  0  0  0  0  0  0  0  0  0  0
    7.4872   -4.0892   22.3561 C   0  0  0  0  0  0  0  0  0  0  0  0
    7.2506   -4.6065   23.7707 C   0  0  0  0  0  0  0  0  0  0  0  0
  8  9  2  0
  9 10  1  0
  9  1  1  0
 10 12  1  0
 12 13  1  0
 13 14  1  0
 14 15  1  0
 15 16  1  0
  1  2  1  0
  1 17  1  6
  2  3  2  0
  2  7  1  0
  3  4  1  0
  4  5  2  0
  5  6  1  0
  6  7  2  0
 17 18  1  0
 17 20  1  0
 18 19  2  0
 18 30  1  0
 30 31  1  0
 20 21  2  0
 20 25  1  0
 21 22  1  0
 22 23  2  0
 23 26  1  0
 23 24  1  0
 26 27  1  1
 26 28  1  0
 26 29  1  0
 24 25  2  0
 10 11  1  0
M  END
>  <minimizedAffinity>  (1) 
-6.43383

>  <minimizedRMSD>  (1) 
1.46051

$$$$
