
     RDKit          3D

 31 32  0  0  0  0  0  0  0  0999 V2000
    7.3225    0.6091   22.1800 C   0  0  2  0  0  0  0  0  0  0  0  0
    6.9375    0.6016   20.7123 C   0  0  0  0  0  0  0  0  0  0  0  0
    5.7323    1.1830   20.2937 C   0  0  0  0  0  0  0  0  0  0  0  0
    5.3960    1.1956   18.9408 C   0  0  0  0  0  0  0  0  0  0  0  0
    6.2731    0.6349   18.0121 C   0  0  0  0  0  0  0  0  0  0  0  0
    7.4414    0.0799   18.4238 N   0  0  0  0  0  0  0  0  0  0  0  0
    7.7878    0.0521   19.7368 C   0  0  0  0  0  0  0  0  0  0  0  0
    8.5633    2.5635   21.5214 O   0  0  0  0  0  0  0  0  0  0  0  0
    8.2113    1.8022   22.4646 C   0  0  0  0  0  0  0  0  0  0  0  0
    8.6963    2.0359   23.7950 N   0  0  0  0  0  0  0  0  0  0  0  0
    8.3915    1.4067   24.5513 H   0  0  0  0  0  0  0  0  0  0  0  0
    9.6060    3.1326   24.1168 C   0  0  0  0  0  0  0  0  0  0  0  0
   11.0562    2.6382   24.1421 C   0  0  0  0  0  0  0  0  0  0  0  0
   11.9534    3.5313   23.2791 C   0  0  0  0  0  0  0  0  0  0  0  0
   12.9368    2.7523   22.6246 O   0  0  0  0  0  0  0  0  0  0  0  0
   12.8861    1.4160   23.0739 C   0  0  0  0  0  0  0  0  0  0  0  0
    7.9429   -0.6774   22.5775 N   0  0  0  0  0  0  0  0  0  0  0  0
    9.3550   -0.8917   22.3443 C   0  0  0  0  0  0  0  0  0  0  0  0
   10.0260   -0.0156   21.7304 O   0  0  0  0  0  0  0  0  0  0  0  0
    7.1288   -1.7972   22.9725 C   0  0  0  0  0  0  0  0  0  0  0  0
    6.6344   -2.6792   22.0083 C   0  0  0  0  0  0  0  0  0  0  0  0
    5.8358   -3.7601   22.3863 C   0  0  0  0  0  0  0  0  0  0  0  0
    5.5132   -3.9909   23.7431 C   0  0  0  0  0  0  0  0  0  0  0  0
    6.0214   -3.0836   24.7037 C   0  0  0  0  0  0  0  0  0  0  0  0
    6.8178   -2.0023   24.3190 C   0  0  0  0  0  0  0  0  0  0  0  0
    4.6323   -5.1990   24.1215 C   0  0  2  0  0  0  0  0  0  0  0  0
    3.1986   -4.9702   23.5994 C   0  0  0  0  0  0  0  0  0  0  0  0
    4.5449   -5.4325   25.6489 C   0  0  0  0  0  0  0  0  0  0  0  0
    5.2124   -6.4803   23.4840 C   0  0  0  0  0  0  0  0  0  0  0  0
   10.0316   -2.1649   22.7991 C   0  0  0  0  0  0  0  0  0  0  0  0
   11.5221   -1.9850   23.0846 C   0  0  0  0  0  0  0  0  0  0  0  0
  8  9  2  0
  9 10  1  0
  9  1  1  0
 10 12  1  0
 12 13  1  0
 13 14  1  0
 14 15  1  0
 15 16  1  0
  1  2  1  0
  1 17  1  6
  2  3  2  0
  2  7  1  0
  3  4  1  0
  4  5  2  0
  5  6  1  0
  6  7  2  0
 17 18  1  0
 17 20  1  0
 18 19  2  0
 18 30  1  0
 30 31  1  0
 20 21  2  0
 20 25  1  0
 21 22  1  0
 22 23  2  0
 23 26  1  0
 23 24  1  0
 26 27  1  6
 26 28  1  0
 26 29  1  0
 24 25  2  0
 10 11  1  0
M  END
>  <minimizedAffinity>  (1) 
-6.45376

>  <minimizedRMSD>  (1) 
4.56664

$$$$
