
     RDKit          3D

 31 32  0  0  0  0  0  0  0  0999 V2000
    6.9238   -0.2195   22.0418 C   0  0  2  0  0  0  0  0  0  0  0  0
    6.7494    0.0879   20.5653 C   0  0  0  0  0  0  0  0  0  0  0  0
    5.5938    0.7474   20.1224 C   0  0  0  0  0  0  0  0  0  0  0  0
    5.4408    1.0611   18.7728 C   0  0  0  0  0  0  0  0  0  0  0  0
    6.4509    0.7221   17.8727 C   0  0  0  0  0  0  0  0  0  0  0  0
    7.5700    0.0898   18.3081 N   0  0  0  0  0  0  0  0  0  0  0  0
    7.7392   -0.2298   19.6173 C   0  0  0  0  0  0  0  0  0  0  0  0
    7.2333    1.3659   23.8117 O   0  0  0  0  0  0  0  0  0  0  0  0
    7.6610    0.9213   22.7114 C   0  0  0  0  0  0  0  0  0  0  0  0
    8.8417    1.4872   22.1197 N   0  0  0  0  0  0  0  0  0  0  0  0
    9.1414    1.1537   21.1924 H   0  0  0  0  0  0  0  0  0  0  0  0
    9.6322    2.5186   22.7868 C   0  0  0  0  0  0  0  0  0  0  0  0
   10.7348    1.8753   23.6344 C   0  0  0  0  0  0  0  0  0  0  0  0
   12.0899    1.8912   22.9179 C   0  0  0  0  0  0  0  0  0  0  0  0
   12.1605    2.9606   21.9921 O   0  0  0  0  0  0  0  0  0  0  0  0
   13.1246    3.9052   22.4025 C   0  0  0  0  0  0  0  0  0  0  0  0
    7.5635   -1.5409   22.2606 N   0  0  0  0  0  0  0  0  0  0  0  0
    6.7733   -2.7458   22.1121 C   0  0  0  0  0  0  0  0  0  0  0  0
    5.5587   -2.6576   21.7779 O   0  0  0  0  0  0  0  0  0  0  0  0
    8.8923   -1.6439   22.8077 C   0  0  0  0  0  0  0  0  0  0  0  0
    9.0783   -1.7289   24.1903 C   0  0  0  0  0  0  0  0  0  0  0  0
   10.3642   -1.8363   24.7237 C   0  0  0  0  0  0  0  0  0  0  0  0
   11.5021   -1.8738   23.8859 C   0  0  0  0  0  0  0  0  0  0  0  0
   11.2930   -1.7833   22.4886 C   0  0  0  0  0  0  0  0  0  0  0  0
   10.0040   -1.6715   21.9610 C   0  0  0  0  0  0  0  0  0  0  0  0
   12.9063   -1.9941   24.5132 C   0  0  2  0  0  0  0  0  0  0  0  0
   12.9295   -3.1744   25.5099 C   0  0  0  0  0  0  0  0  0  0  0  0
   13.2488   -0.6870   25.2588 C   0  0  0  0  0  0  0  0  0  0  0  0
   14.0187   -2.2452   23.4668 C   0  0  0  0  0  0  0  0  0  0  0  0
    7.3856   -4.1113   22.3326 C   0  0  0  0  0  0  0  0  0  0  0  0
    6.4322   -5.2590   22.0006 C   0  0  0  0  0  0  0  0  0  0  0  0
  8  9  2  0
  9 10  1  0
  9  1  1  0
 10 12  1  0
 12 13  1  0
 13 14  1  0
 14 15  1  0
 15 16  1  0
  1  2  1  0
  1 17  1  6
  2  3  2  0
  2  7  1  0
  3  4  1  0
  4  5  2  0
  5  6  1  0
  6  7  2  0
 17 18  1  0
 17 20  1  0
 18 19  2  0
 18 30  1  0
 30 31  1  0
 20 21  2  0
 20 25  1  0
 21 22  1  0
 22 23  2  0
 23 26  1  0
 23 24  1  0
 26 27  1  1
 26 28  1  0
 26 29  1  0
 24 25  2  0
 10 11  1  0
M  END
>  <minimizedAffinity>  (1) 
-7.19852

>  <minimizedRMSD>  (1) 
1.22386

$$$$
