
     RDKit          3D

 31 32  0  0  0  0  0  0  0  0999 V2000
    6.6788   -0.1551   21.9209 C   0  0  2  0  0  0  0  0  0  0  0  0
    6.5657    0.1454   20.4379 C   0  0  0  0  0  0  0  0  0  0  0  0
    5.4333    0.8003   19.9334 C   0  0  0  0  0  0  0  0  0  0  0  0
    5.3469    1.0990   18.5744 C   0  0  0  0  0  0  0  0  0  0  0  0
    6.3999    0.7497   17.7284 C   0  0  0  0  0  0  0  0  0  0  0  0
    7.4962    0.1222   18.2249 N   0  0  0  0  0  0  0  0  0  0  0  0
    7.6005   -0.1828   19.5443 C   0  0  0  0  0  0  0  0  0  0  0  0
    7.9920    1.8576   22.0611 O   0  0  0  0  0  0  0  0  0  0  0  0
    7.2096    1.0614   22.6502 C   0  0  0  0  0  0  0  0  0  0  0  0
    6.8734    1.2734   24.0291 N   0  0  0  0  0  0  0  0  0  0  0  0
    6.2025    0.6345   24.4791 H   0  0  0  0  0  0  0  0  0  0  0  0
    7.4461    2.3605   24.8189 C   0  0  0  0  0  0  0  0  0  0  0  0
    8.9754    2.2709   24.8231 C   0  0  0  0  0  0  0  0  0  0  0  0
    9.6076    3.6608   24.6979 C   0  0  0  0  0  0  0  0  0  0  0  0
   10.3893    3.7397   23.5212 O   0  0  0  0  0  0  0  0  0  0  0  0
   11.4738    2.8400   23.5879 C   0  0  0  0  0  0  0  0  0  0  0  0
    7.4966   -1.3676   22.1615 N   0  0  0  0  0  0  0  0  0  0  0  0
    6.8484   -2.6577   22.2517 C   0  0  0  0  0  0  0  0  0  0  0  0
    5.5883   -2.7206   22.2998 O   0  0  0  0  0  0  0  0  0  0  0  0
    8.8713   -1.2562   22.5730 C   0  0  0  0  0  0  0  0  0  0  0  0
    9.2006   -1.2787   23.9306 C   0  0  0  0  0  0  0  0  0  0  0  0
   10.5320   -1.1588   24.3373 C   0  0  0  0  0  0  0  0  0  0  0  0
   11.5717   -1.0109   23.3877 C   0  0  0  0  0  0  0  0  0  0  0  0
   11.2150   -0.9960   22.0201 C   0  0  0  0  0  0  0  0  0  0  0  0
    9.8823   -1.1113   21.6202 C   0  0  0  0  0  0  0  0  0  0  0  0
   13.0570   -0.8967   23.7877 C   0  0  1  0  0  0  0  0  0  0  0  0
   13.7295    0.2322   22.9755 C   0  0  0  0  0  0  0  0  0  0  0  0
   13.2570   -0.5766   25.2885 C   0  0  0  0  0  0  0  0  0  0  0  0
   13.7687   -2.2334   23.4907 C   0  0  0  0  0  0  0  0  0  0  0  0
    7.6568   -3.9294   22.3549 C   0  0  0  0  0  0  0  0  0  0  0  0
    6.7883   -5.1851   22.2988 C   0  0  0  0  0  0  0  0  0  0  0  0
  8  9  2  0
  9 10  1  0
  9  1  1  0
 10 12  1  0
 12 13  1  0
 13 14  1  0
 14 15  1  0
 15 16  1  0
  1  2  1  0
  1 17  1  6
  2  3  2  0
  2  7  1  0
  3  4  1  0
  4  5  2  0
  5  6  1  0
  6  7  2  0
 17 18  1  0
 17 20  1  0
 18 19  2  0
 18 30  1  0
 30 31  1  0
 20 21  2  0
 20 25  1  0
 21 22  1  0
 22 23  2  0
 23 26  1  0
 23 24  1  0
 26 27  1  6
 26 28  1  0
 26 29  1  0
 24 25  2  0
 10 11  1  0
M  END
>  <minimizedAffinity>  (1) 
-6.21724

>  <minimizedRMSD>  (1) 
1.78484

$$$$
